*HEADING
** Demo jacket + topside wireframe (B31 beams)
** Generated for visualization/testing only
*PREPRINT, ECHO=NO, MODEL=NO, HISTORY=NO, CONTACT=NO
**
*PART, NAME=PLATFORM
*NODE
1, -10.000, -10.000, -130.000
2, 10.000, -10.000, -130.000
3, 10.000, 10.000, -130.000
4, -10.000, 10.000, -130.000
5, -10.000, -10.000, -120.000
6, 10.000, -10.000, -120.000
7, 10.000, 10.000, -120.000
8, -10.000, 10.000, -120.000
9, -10.000, -10.000, -100.000
10, 10.000, -10.000, -100.000
11, 10.000, 10.000, -100.000
12, -10.000, 10.000, -100.000
13, -10.000, -10.000, -80.000
14, 10.000, -10.000, -80.000
15, 10.000, 10.000, -80.000
16, -10.000, 10.000, -80.000
17, -10.000, -10.000, -60.000
18, 10.000, -10.000, -60.000
19, 10.000, 10.000, -60.000
20, -10.000, 10.000, -60.000
** ... 45 like lines cut
*ELEMENT, TYPE=B31, ELSET=EALL
1, 1, 5
2, 5, 9
3, 9, 13
4, 13, 17
5, 17, 21
6, 21, 25
7, 25, 29
8, 29, 33
9, 2, 6
10, 6, 10
11, 10, 14
12, 14, 18
13, 18, 22
14, 22, 26
15, 26, 30
16, 30, 34
17, 3, 7
18, 7, 11
19, 11, 15
20, 15, 19
** ... 162 like lines cut
** Section & material (simple)
*MATERIAL, NAME=STEEL
*ELASTIC
210000., 0.3
*BEAM SECTION, SECTION=CIRC, MATERIAL=STEEL, ELSET=EALL
0.300
0., 0., -1.
*END PART
**
*ASSEMBLY, NAME=ASSEMBLY
*INSTANCE, NAME=PLATFORM-1, PART=PLATFORM
*END INSTANCE
*END ASSEMBLY
** End of file